/*--------------------------------*- C++ -*----------------------------------*\
| =========                 |                                                 |
| \\      /  F ield         | OpenFOAM: The Open Source CFD Toolbox           |
|  \\    /   O peration     | Version:  (minimal template)                    |
|   \\  /    A nd           | Web:      www.OpenFOAM.com                      |
|    \\/     M anipulation  |                                                 |
\*---------------------------------------------------------------------------*/
FoamFile
{
    version     2.0;
    format      ascii;
    class       dictionary;
    object      blockMeshDict;
}
// * * * * * * * * * * * * * * * * * * * * * * * * * * * * * * * * * * * * * //

convertToMeters 1;

vertices
(
    (-2 -2 -2)
    ( 2 -2 -2)
    ( 2  2 -2)
    (-2  2 -2)
    (-2 -2  2)
    ( 2 -2  2)
    ( 2  2  2)
    (-2  2  2)
);

blocks
(
    hex (0 1 2 3 4 5 6 7) (40 40 40) simpleGrading (1 1 1)
);

edges
(
);

boundary
(
    inlet
    {
        type patch;
        faces
        (
            (0 4 7 3)
        );
    }
    outlet
    {
        type patch;
        faces
        (
            (1 2 6 5)
        );
    }
    walls
    {
        type wall;
        faces
        (
            (0 3 2 1)
            (0 1 5 4)
            (3 7 6 2)
            (4 5 6 7)
        );
    }
);

// ************************************************************************* //
